Circuit: * C:\Users\marwi\Desktop\Code\311_lab\lab4\Draft1.asc

Direct Newton iteration for .op point succeeded.

Date: Fri Apr 15 09:47:54 2022
Total elapsed time: 0.148 seconds.

tnom = 27
temp = 27
method = modified trap
totiter = 2088
traniter = 2082
tranpoints = 1042
accept = 1042
rejected = 0
matrix size = 13
fillins = 0
solver = Normal
Matrix Compiler1: 674 bytes object code size  0.4/0.1/[0.1]
Matrix Compiler2: off  [0.1]/0.2/0.1

