Circuit: * C:\Users\marwi\Desktop\Code\311\lab4\lab4.asc

.OP point found by inspection.

Date: Wed Oct 18 01:22:27 2023
Total elapsed time: 0.130 seconds.

tnom = 27
temp = 27
method = modified trap
totiter = 3858
traniter = 3858
tranpoints = 1677
accept = 1478
rejected = 199
matrix size = 37
fillins = 56
solver = Normal
Matrix Compiler1: 7.76 KB object code size  1.5/0.7/[0.4]
Matrix Compiler2: 4.50 KB object code size  0.3/0.5/[0.3]

