Circuit: * C:\College\CECS\CECS211\lab1\lab1.asc

Direct Newton iteration for .op point succeeded.

Date: Tue Aug 31 11:56:58 2021
Total elapsed time: 0.026 seconds.

tnom = 27
temp = 27
method = modified trap
totiter = 2091
traniter = 2088
tranpoints = 1045
accept = 1045
rejected = 0
matrix size = 2
fillins = 0
solver = Normal
Matrix Compiler1:       2 opcodes  0.0/[0.0]/0.0
Matrix Compiler2: 96 bytes object code size  0.0/0.0/[0.0]

