Circuit: * C:\College\CECS\CECS211\lab4\lab4.asc

Direct Newton iteration for .op point succeeded.

Date: Tue Oct 05 10:34:06 2021
Total elapsed time: 0.048 seconds.

tnom = 27
temp = 27
method = trap
totiter = 3
traniter = 0
tranpoints = 0
accept = 0
rejected = 0
matrix size = 5
fillins = 0
solver = Normal
Matrix Compiler1: 230 bytes object code size
Matrix Compiler2: 355 bytes object code size
