Circuit: * C:\College\CECS\CECS311\Draft1.asc

.OP point found by inspection.

Date: Wed Feb 02 09:33:27 2022
Total elapsed time: 0.068 seconds.

tnom = 27
temp = 27
method = modified trap
totiter = 2166
traniter = 2166
tranpoints = 1064
accept = 1054
rejected = 10
matrix size = 4
fillins = 0
solver = Normal
Matrix Compiler1:       7 opcodes  0.0/[0.0]/0.0
Matrix Compiler2: 242 bytes object code size  0.0/0.0/[0.0]

